<?xml version='1.0' encoding='UTF-8'?>
<!-- generated on 2025-05-19 14:06:53 by Eclipse SUMO netconvert Version 1.23.1
<netconvertConfiguration xmlns:xsi="http://www.w3.org/2001/XMLSchema-instance" xsi:noNamespaceSchemaLocation="http://sumo.dlr.de/xsd/netconvertConfiguration.xsd">

    <input>
        <type-files value="/home/conorpowderly/Desktop/ConorThesis/CARLA_0.9.15/Co-Simulation/Sumo/util/data/opendrive_netconvert.typ.xml"/>
        <opendrive-files value="ScenerioHighwayFixed.xodr"/>
    </input>

    <output>
        <output-file value="/tmp/tmpk8cmg9vv/ScenerioHighwayFixed.net.xml"/>
        <output.original-names value="true"/>
    </output>

    <processing>
        <geometry.remove value="true"/>
        <geometry.min-radius.fix value="true"/>
    </processing>

    <tls_building>
        <tls.discard-loaded value="true"/>
    </tls_building>

    <junctions>
        <no-turnarounds.except-deadend value="true"/>
    </junctions>

    <formats>
        <opendrive.import-all-lanes value="true"/>
        <opendrive.curve-resolution value="1"/>
    </formats>

</netconvertConfiguration>
-->
<net xmlns:xsi="http://www.w3.org/2001/XMLSchema-instance" version="1.20" junctionCornerDetail="5" rectangularLaneCut="true" limitTurnSpeed="5.50" xsi:noNamespaceSchemaLocation="http://sumo.dlr.de/xsd/net_file.xsd">
  <location netOffset="1066.04,2006.75" convBoundary="0.00,0.00,5350.87,6175.86" origBoundary="0.000000,0.000000,0.000000,0.000000" projParameter="+proj=tmerc +lat_0=53.3685 +lon_0=-6.3699999 +k=1 +x_0=0 +y_0=0 +datum=WGS84 +units=m +vunits=m +no_defs"/>
  <type id="driving" priority="1" speed="13.89" disallow="pedestrian tram rail_urban rail rail_electric rail_fast ship" width="3.65"/>
  <edge id=":111#1_0" function="internal">
    <lane id=":111#1_0_0" index="0" disallow="pedestrian tram rail_urban rail rail_electric rail_fast ship" speed="11.11" length="8.08" width="3.50" shape="300.79,1731.20,9.70 301.34,1733.56,9.68 300.19,1735.52,9.66 298.99,1737.51,9.64 299.41,1739.96,9.62"/>
    <lane id=":111#1_0_1" index="1" disallow="pedestrian tram rail_urban rail rail_electric rail_fast ship" speed="11.11" length="8.08" width="3.50" shape="298.64,1733.99,9.62 296.44,1741.82,9.62"/>
    <lane id=":111#1_0_2" index="2" disallow="pedestrian tram rail_urban rail rail_electric rail_fast ship" speed="11.11" length="8.08" width="3.50" shape="296.50,1736.76,9.62 293.47,1743.68,9.62"/>
    <lane id=":111#1_0_3" index="3" disallow="pedestrian tram rail_urban rail rail_electric rail_fast ship" speed="11.11" length="8.08" width="3.50" shape="294.37,1739.54,9.62 290.51,1745.54,9.62"/>
  </edge>
  <edge id=":127.10_0" function="internal">
    <lane id=":127.10_0_0" index="0" disallow="pedestrian tram rail_urban rail rail_electric rail_fast ship" speed="17.78" length="3.00" width="3.50" shape="4666.08,5781.53 4663.39,5780.15"/>
    <lane id=":127.10_0_1" index="1" disallow="pedestrian tram rail_urban rail rail_electric rail_fast ship" speed="17.78" length="3.00" width="3.50" shape="4667.67,5778.41 4665.00,5777.04"/>
    <lane id=":127.10_0_2" index="2" disallow="all" speed="17.78" length="3.00" width="3.50" shape="4669.26,5775.29 4666.62,5773.94"/>
  </edge>
  <edge id=":13#1_0" function="internal">
    <lane id=":13#1_0_0" index="0" disallow="all" speed="17.78" length="5.54" width="3.50" shape="4414.15,5662.00 4415.24,5662.56 4416.15,5662.59 4417.08,5662.61 4418.20,5663.11"/>
    <lane id=":13#1_0_1" index="1" disallow="pedestrian tram rail_urban rail rail_electric rail_fast ship" speed="17.78" length="5.54" width="3.50" shape="4411.95,5664.72 4413.08,5665.32 4414.03,5665.38 4414.99,5665.42 4416.16,5665.96"/>
    <lane id=":13#1_0_2" index="2" disallow="pedestrian tram rail_urban rail rail_electric rail_fast ship" speed="17.78" length="5.54" width="3.50" shape="4409.75,5667.45 4410.93,5668.08 4411.91,5668.16 4412.91,5668.23 4414.13,5668.81"/>
    <lane id=":13#1_0_3" index="3" disallow="pedestrian tram rail_urban rail rail_electric rail_fast ship" speed="17.78" length="5.54" width="3.50" shape="4407.55,5670.17 4408.77,5670.84 4409.79,5670.95 4410.82,5671.04 4412.09,5671.65"/>
    <lane id=":13#1_0_4" index="4" disallow="pedestrian tram rail_urban rail rail_electric rail_fast ship" speed="17.78" length="5.54" width="3.50" shape="4405.35,5672.89 4407.16,5674.03 4408.60,5674.47 4410.08,5674.84 4412.03,5675.80"/>
    <lane id=":13#1_0_5" index="5" disallow="all" speed="17.78" length="5.54" width="3.50" shape="4403.15,5675.61 4404.90,5677.03 4406.11,5677.98 4407.37,5678.87 4409.25,5680.11"/>
  </edge>
  <edge id=":13#2_0" function="internal">
    <lane id=":13#2_0_0" index="0" disallow="all" speed="17.78" length="3.34" width="3.50" shape="4418.85,5663.57 4419.66,5664.07 4420.25,5664.35 4420.85,5664.60 4421.70,5665.03"/>
    <lane id=":13#2_0_1" index="1" disallow="pedestrian tram rail_urban rail rail_electric rail_fast ship" speed="17.78" length="3.34" width="3.50" shape="4416.89,5666.47 4417.76,5667.01 4418.39,5667.31 4419.03,5667.59 4419.95,5668.06"/>
    <lane id=":13#2_0_2" index="2" disallow="pedestrian tram rail_urban rail rail_electric rail_fast ship" speed="17.78" length="3.34" width="3.50" shape="4414.92,5669.37 4415.85,5669.95 4416.53,5670.28 4417.22,5670.59 4418.20,5671.09"/>
    <lane id=":13#2_0_3" index="3" disallow="pedestrian tram rail_urban rail rail_electric rail_fast ship" speed="17.78" length="3.34" width="3.50" shape="4412.96,5672.26 4413.95,5672.89 4414.67,5673.25 4415.40,5673.58 4416.45,5674.13"/>
    <lane id=":13#2_0_4" index="4" disallow="pedestrian tram rail_urban rail rail_electric rail_fast ship" speed="17.78" length="3.34" width="3.50" shape="4412.19,5675.91 4412.91,5676.32 4413.43,5676.56 4413.96,5676.78 4414.70,5677.16"/>
    <lane id=":13#2_0_5" index="5" allow="emergency authority" speed="17.78" length="3.34" width="3.50" shape="4410.80,5678.07 4411.49,5678.64 4411.86,5679.16 4412.23,5679.66 4412.95,5680.19"/>
    <lane id=":13#2_0_6" index="6" disallow="all" speed="17.78" length="3.34" width="1.89" shape="4409.42,5680.22 4410.12,5680.84 4410.49,5681.40 4410.86,5681.96 4411.60,5682.52"/>
  </edge>
  <edge id=":134.131_0" function="internal">
    <lane id=":134.131_0_0" index="0" disallow="all" speed="17.78" length="3.00" width="3.50" shape="4551.98,5739.94,0.00 4549.42,5738.38,0.00"/>
    <lane id=":134.131_0_1" index="1" disallow="pedestrian tram rail_urban rail rail_electric rail_fast ship" speed="17.78" length="3.00" width="3.50" shape="4553.80,5736.95,0.00 4551.24,5735.39,0.00"/>
    <lane id=":134.131_0_2" index="2" disallow="pedestrian tram rail_urban rail rail_electric rail_fast ship" speed="17.78" length="3.00" width="3.50" shape="4555.62,5733.96,0.00 4553.06,5732.40,0.00"/>
    <lane id=":134.131_0_3" index="3" disallow="pedestrian tram rail_urban rail rail_electric rail_fast ship" speed="17.78" length="3.00" width="3.50" shape="4557.44,5730.97,0.00 4554.88,5729.41,0.00"/>
  </edge>
  <edge id=":136.13_0" function="internal">
    <lane id=":136.13_0_0" index="0" disallow="all" speed="17.78" length="3.03" width="3.50" shape="4401.47,5653.15 4404.09,5654.77"/>
    <lane id=":136.13_0_1" index="1" disallow="pedestrian tram rail_urban rail rail_electric rail_fast ship" speed="17.78" length="3.03" width="3.50" shape="4399.63,5656.13 4402.23,5657.74"/>
    <lane id=":136.13_0_2" index="2" disallow="pedestrian tram rail_urban rail rail_electric rail_fast ship" speed="17.78" length="3.03" width="3.50" shape="4397.79,5659.11 4400.38,5660.71"/>
    <lane id=":136.13_0_3" index="3" disallow="pedestrian tram rail_urban rail rail_electric rail_fast ship" speed="17.78" length="3.03" width="3.50" shape="4395.95,5662.08 4398.52,5663.68"/>
    <lane id=":136.13_0_4" index="4" disallow="pedestrian tram rail_urban rail rail_electric rail_fast ship" speed="17.78" length="3.03" width="3.50" shape="4394.11,5665.06 4396.67,5666.64"/>
    <lane id=":136.13_0_5" index="5" disallow="all" speed="17.78" length="3.03" width="3.50" shape="4392.27,5668.04 4394.81,5669.61"/>
  </edge>
  <edge id=":139#1_0" function="internal">
    <lane id=":139#1_0_0" index="0" disallow="pedestrian tram rail_urban rail rail_electric rail_fast ship" speed="11.11" length="5.30" width="3.50" shape="307.86,1731.23,9.96 303.57,1726.71,10.00"/>
    <lane id=":139#1_0_1" index="1" disallow="pedestrian tram rail_urban rail rail_electric rail_fast ship" speed="11.11" length="5.30" width="3.50" shape="311.24,1730.33,9.96 307.07,1726.63,10.00"/>
    <lane id=":139#1_0_2" index="2" disallow="pedestrian tram rail_urban rail rail_electric rail_fast ship" speed="11.11" length="5.30" width="3.50" shape="314.62,1729.43,9.96 310.57,1726.56,10.00"/>
    <lane id=":139#1_0_3" index="3" disallow="pedestrian tram rail_urban rail rail_electric rail_fast ship" speed="11.11" length="5.30" width="3.50" shape="318.01,1728.53,9.96 314.07,1726.48,10.00"/>
  </edge>
  <edge id=":145.136_0" function="internal">
    <lane id=":145.136_0_0" index="0" disallow="all" speed="17.78" length="3.00" width="3.50" shape="3580.64,5142.14 3583.20,5143.71"/>
    <lane id=":145.136_0_1" index="1" disallow="pedestrian tram rail_urban rail rail_electric rail_fast ship" speed="17.78" length="3.00" width="3.50" shape="3578.81,5145.13 3581.37,5146.70"/>
    <lane id=":145.136_0_2" index="2" disallow="pedestrian tram rail_urban rail rail_electric rail_fast ship" speed="17.78" length="3.00" width="3.50" shape="3576.98,5148.11 3579.54,5149.68"/>
    <lane id=":145.136_0_3" index="3" disallow="pedestrian tram rail_urban rail rail_electric rail_fast ship" speed="17.78" length="3.00" width="3.50" shape="3575.15,5151.09 3577.71,5152.66"/>
    <lane id=":145.136_0_4" index="4" disallow="pedestrian tram rail_urban rail rail_electric rail_fast ship" speed="17.78" length="3.00" width="3.50" shape="3573.32,5154.08 3575.88,5155.64"/>
    <lane id=":145.136_0_5" index="5" disallow="all" speed="17.78" length="3.00" width="3.50" shape="3571.49,5157.06 3574.05,5158.63"/>
  </edge>
  <edge id=":148#1_0" function="internal">
    <lane id=":148#1_0_0" index="0" disallow="pedestrian tram rail_urban rail rail_electric rail_fast ship" speed="17.78" length="4.61" width="3.50" shape="2111.71,4210.57,-0.05 2111.16,4205.99,-0.07"/>
  </edge>
  <edge id=":152.108_0" function="internal">
    <lane id=":152.108_0_0" index="0" disallow="all" speed="17.78" length="3.00" width="3.50" shape="2189.44,4281.35 2191.96,4282.95"/>
    <lane id=":152.108_0_1" index="1" disallow="pedestrian tram rail_urban rail rail_electric rail_fast ship" speed="17.78" length="3.00" width="3.50" shape="2187.56,4284.31 2190.09,4285.91"/>
    <lane id=":152.108_0_2" index="2" disallow="pedestrian tram rail_urban rail rail_electric rail_fast ship" speed="17.78" length="3.00" width="3.50" shape="2185.69,4287.27 2188.22,4288.87"/>
    <lane id=":152.108_0_3" index="3" disallow="pedestrian tram rail_urban rail rail_electric rail_fast ship" speed="17.78" length="3.00" width="3.50" shape="2183.82,4290.22 2186.35,4291.83"/>
    <lane id=":152.108_0_4" index="4" disallow="pedestrian tram rail_urban rail rail_electric rail_fast ship" speed="17.78" length="3.00" width="3.50" shape="2181.94,4293.18 2184.48,4294.79"/>
    <lane id=":152.108_0_5" index="5" disallow="all" speed="17.78" length="3.00" width="3.50" shape="2180.07,4296.14 2182.61,4297.75"/>
  </edge>
  <edge id=":153.142_0" function="internal">
    <lane id=":153.142_0_0" index="0" disallow="pedestrian tram rail_urban rail rail_electric rail_fast ship" speed="14.44" length="0.10" width="3.50" shape="259.06,1467.22,11.77 259.06,1467.22,11.77"/>
    <lane id=":153.142_0_1" index="1" disallow="pedestrian tram rail_urban rail rail_electric rail_fast ship" speed="14.44" length="0.10" width="3.50" shape="262.52,1466.66,11.77 262.52,1466.66,11.77"/>
    <lane id=":153.142_0_2" index="2" disallow="pedestrian tram rail_urban rail rail_electric rail_fast ship" speed="14.44" length="0.10" width="3.50" shape="265.97,1466.11,11.77 265.97,1466.11,11.77"/>
    <lane id=":153.142_0_3" index="3" disallow="pedestrian tram rail_urban rail rail_electric rail_fast ship" speed="14.44" length="0.10" width="3.50" shape="269.43,1465.55,11.77 269.43,1465.55,11.77"/>
    <lane id=":153.142_0_4" index="4" disallow="all" speed="14.44" length="0.10" width="3.50" shape="272.88,1465.00,11.77 272.88,1465.00,11.77"/>
  </edge>
  <edge id=":165.126_0" function="internal">
    <lane id=":165.126_0_0" index="0" disallow="all" speed="17.78" length="3.01" width="3.50" shape="4881.98,5951.71,10.50 4882.69,5952.25,10.54 4883.11,5952.72,10.57 4883.53,5953.19,10.59 4884.25,5953.73,10.63"/>
    <lane id=":165.126_0_1" index="1" disallow="pedestrian tram rail_urban rail rail_electric rail_fast ship" speed="17.78" length="3.01" width="3.00" shape="4880.12,5954.68,10.50 4882.52,5956.48,10.63"/>
    <lane id=":165.126_0_2" index="2" disallow="pedestrian tram rail_urban rail rail_electric rail_fast ship" speed="17.78" length="3.01" width="3.50" shape="4878.26,5957.64,10.50 4880.80,5959.24,10.63"/>
    <lane id=":165.126_0_3" index="3" disallow="pedestrian tram rail_urban rail rail_electric rail_fast ship" speed="17.78" length="3.01" width="3.00" shape="4876.53,5960.39,10.50 4879.07,5961.99,10.63"/>
    <lane id=":165.126_0_4" index="4" disallow="all" speed="17.78" length="3.01" width="0.50" shape="4875.60,5961.88,10.50 4878.14,5963.47,10.63"/>
    <lane id=":165.126_0_5" index="5" disallow="all" speed="17.78" length="3.01" width="0.50" shape="4875.33,5962.30,10.50 4877.87,5963.89,10.63"/>
    <lane id=":165.126_0_6" index="6" disallow="all" speed="17.78" length="3.01" width="0.50" shape="4875.07,5962.72,10.50 4877.61,5964.32,10.63"/>
  </edge>
  <edge id=":166.127_0" function="internal">
    <lane id=":166.127_0_0" index="0" disallow="pedestrian tram rail_urban rail rail_electric rail_fast ship" speed="17.78" length="2.98" width="3.50" shape="4661.99,5779.42 4659.32,5778.01"/>
    <lane id=":166.127_0_1" index="1" disallow="pedestrian tram rail_urban rail rail_electric rail_fast ship" speed="17.78" length="2.98" width="3.50" shape="4663.60,5776.31 4660.97,5774.92"/>
    <lane id=":166.127_0_2" index="2" disallow="all" speed="17.78" length="2.98" width="3.50" shape="4665.22,5773.21 4662.62,5771.84"/>
  </edge>
  <edge id=":173#1_0" function="internal">
    <lane id=":173#1_0_0" index="0" disallow="pedestrian tram rail_urban rail rail_electric rail_fast ship" speed="17.78" length="2.96" width="3.50" shape="65.95,265.34 68.69,266.51"/>
    <lane id=":173#1_0_1" index="1" disallow="pedestrian tram rail_urban rail rail_electric rail_fast ship" speed="17.78" length="2.96" width="3.50" shape="68.87,263.19 71.51,264.43"/>
    <lane id=":173#1_0_2" index="2" disallow="pedestrian tram rail_urban rail rail_electric rail_fast ship" speed="17.78" length="2.96" width="3.50" shape="71.39,261.33 74.32,262.35"/>
    <lane id=":173#1_0_3" index="3" disallow="pedestrian tram rail_urban rail rail_electric rail_fast ship" speed="17.78" length="2.96" width="3.50" shape="74.20,259.25 77.14,260.27"/>
    <lane id=":173#1_0_4" index="4" allow="emergency authority" speed="17.78" length="2.96" width="1.74" shape="77.02,257.18 79.25,258.72"/>
  </edge>
  <edge id=":173#2_0" function="internal">
    <lane id=":173#2_0_0" index="0" disallow="pedestrian tram rail_urban rail rail_electric rail_fast ship" speed="16.74" length="8.70" width="3.50" shape="68.57,266.35 66.88,263.58 66.29,261.40 66.15,259.04 65.83,255.70"/>
    <lane id=":173#2_0_1" index="1" disallow="pedestrian tram rail_urban rail rail_electric rail_fast ship" speed="15.45" length="8.70" width="3.50" shape="71.39,264.27 69.99,261.91 69.56,260.05 69.53,258.02 69.29,255.18"/>
    <lane id=":173#2_0_2" index="2" disallow="pedestrian tram rail_urban rail rail_electric rail_fast ship" speed="14.06" length="8.70" width="3.50" shape="74.20,262.19 73.10,260.25 72.84,258.69 72.90,257.00 72.75,254.66"/>
    <lane id=":173#2_0_3" index="3" disallow="pedestrian tram rail_urban rail rail_electric rail_fast ship" speed="12.53" length="8.70" width="3.50" shape="77.02,260.11 76.20,258.58 76.12,257.33 76.28,255.99 76.22,254.14"/>
  </edge>
  <edge id=":178#1_0" function="internal">
    <lane id=":178#1_0_0" index="0" disallow="pedestrian tram rail_urban rail rail_electric rail_fast ship" speed="11.11" length="3.00" width="3.50" shape="233.39,1374.17,10.00 233.88,1377.12,10.00"/>
    <lane id=":178#1_0_1" index="1" disallow="pedestrian tram rail_urban rail rail_electric rail_fast ship" speed="11.11" length="3.00" width="3.50" shape="229.94,1374.74,10.00 230.43,1377.70,10.00"/>
    <lane id=":178#1_0_2" index="2" disallow="pedestrian tram rail_urban rail rail_electric rail_fast ship" speed="11.11" length="3.00" width="3.50" shape="226.48,1375.32,10.00 226.98,1378.28,10.00"/>
    <lane id=":178#1_0_3" index="3" disallow="pedestrian tram rail_urban rail rail_electric rail_fast ship" speed="11.11" length="3.00" width="3.50" shape="223.03,1375.89,10.00 223.53,1378.85,10.00"/>
    <lane id=":178#1_0_4" index="4" disallow="all" speed="11.11" length="3.00" width="0.50" shape="221.06,1376.22,10.00 221.55,1379.18,10.00"/>
  </edge>
  <edge id=":183.175_0" function="internal">
    <lane id=":183.175_0_0" index="0" disallow="pedestrian tram rail_urban rail rail_electric rail_fast ship" speed="14.44" length="0.10" width="3.50" shape="1806.55,3964.58,4.22 1806.55,3964.58,4.22"/>
    <lane id=":183.175_0_1" index="1" disallow="pedestrian tram rail_urban rail rail_electric rail_fast ship" speed="14.44" length="0.10" width="3.50" shape="1803.94,3966.91,4.22 1803.94,3966.91,4.22"/>
    <lane id=":183.175_0_2" index="2" disallow="pedestrian tram rail_urban rail rail_electric rail_fast ship" speed="14.44" length="0.10" width="3.50" shape="1801.33,3969.23,4.22 1801.33,3969.23,4.22"/>
  </edge>
  <edge id=":184.146_0" function="internal">
    <lane id=":184.146_0_0" index="0" disallow="pedestrian tram rail_urban rail rail_electric rail_fast ship" speed="11.11" length="4.28" width="3.50" shape="175.36,1027.04,5.91 172.62,1030.79,5.95"/>
    <lane id=":184.146_0_1" index="1" disallow="pedestrian tram rail_urban rail rail_electric rail_fast ship" speed="11.11" length="4.28" width="3.50" shape="171.98,1027.96,5.91 169.18,1031.40,5.95"/>
    <lane id=":184.146_0_2" index="2" disallow="pedestrian tram rail_urban rail rail_electric rail_fast ship" speed="11.11" length="4.28" width="3.50" shape="168.61,1028.88,5.91 165.73,1032.00,5.95"/>
    <lane id=":184.146_0_3" index="3" disallow="pedestrian tram rail_urban rail rail_electric rail_fast ship" speed="11.11" length="4.28" width="3.50" shape="165.23,1029.80,5.91 162.28,1032.61,5.95"/>
    <lane id=":184.146_0_4" index="4" disallow="all" speed="11.11" length="4.28" width="0.50" shape="163.30,1030.33,5.91 160.31,1032.96,5.95"/>
  </edge>
  <edge id=":186.165_0" function="internal">
    <lane id=":186.165_0_0" index="0" disallow="all" speed="17.78" length="3.01" width="3.50" shape="4964.81,6005.35,13.30 4965.58,6005.80,13.31 4966.14,6006.05,13.31 4966.70,6006.30,13.31 4967.47,6006.75,13.31"/>
    <lane id=":186.165_0_1" index="1" disallow="pedestrian tram rail_urban rail rail_electric rail_fast ship" speed="17.78" length="3.01" width="3.00" shape="4963.03,6008.07,13.30 4963.80,6008.52,13.31 4964.36,6008.77,13.31 4964.93,6009.02,13.31 4965.70,6009.47,13.31"/>
    <lane id=":186.165_0_2" index="2" disallow="pedestrian tram rail_urban rail rail_electric rail_fast ship" speed="17.78" length="3.01" width="3.50" shape="4961.25,6010.79,13.30 4962.03,6011.24,13.31 4962.59,6011.49,13.31 4963.15,6011.74,13.31 4963.92,6012.19,13.31"/>
    <lane id=":186.165_0_3" index="3" disallow="pedestrian tram rail_urban rail rail_electric rail_fast ship" speed="17.78" length="3.01" width="3.28" shape="4959.48,6013.51,13.30 4962.07,6015.03,13.31"/>
    <lane id=":186.165_0_4" index="4" disallow="all" speed="17.78" length="3.01" width="0.50" shape="4958.52,6014.98,13.30 4961.04,6016.62,13.31"/>
    <lane id=":186.165_0_5" index="5" disallow="all" speed="17.78" length="3.01" width="0.50" shape="4958.25,6015.40,13.30 4960.76,6017.04,13.31"/>
    <lane id=":186.165_0_6" index="6" disallow="all" speed="17.78" length="3.01" width="0.50" shape="4957.98,6015.82,13.30 4960.49,6017.46,13.31"/>
  </edge>
  <edge id=":193#1_0" function="internal">
    <lane id=":193#1_0_0" index="0" allow="emergency authority" speed="17.78" length="2.73" width="1.77" shape="1256.31,3199.88,4.27 1256.69,3200.60,4.31 1256.77,3201.20,4.33 1256.85,3201.79,4.36 1257.24,3202.52,4.40"/>
    <lane id=":193#1_0_1" index="1" disallow="pedestrian tram rail_urban rail rail_electric rail_fast ship" speed="17.78" length="2.73" width="3.50" shape="1253.52,3202.00,4.27 1255.15,3204.12,4.40"/>
    <lane id=":193#1_0_2" index="2" disallow="pedestrian tram rail_urban rail rail_electric rail_fast ship" speed="17.78" length="2.73" width="3.50" shape="1250.74,3204.13,4.27 1252.37,3206.25,4.40"/>
  </edge>
  <edge id=":193#2_0" function="internal">
    <lane id=":193#2_0_0" index="0" disallow="pedestrian tram rail_urban rail rail_electric rail_fast ship" speed="17.78" length="7.68" width="3.50" shape="1255.27,3204.28,4.40 1259.93,3210.37,4.76"/>
    <lane id=":193#2_0_1" index="1" disallow="pedestrian tram rail_urban rail rail_electric rail_fast ship" speed="17.78" length="7.68" width="3.50" shape="1252.49,3206.41,4.40 1257.15,3212.50,4.76"/>
  </edge>
  <edge id=":197#1_0" function="internal">
    <lane id=":197#1_0_0" index="0" disallow="pedestrian tram rail_urban rail rail_electric rail_fast ship" speed="17.78" length="3.63" width="3.50" shape="130.17,612.68 129.72,611.68 129.13,611.10 128.58,610.51 128.24,609.48"/>
    <lane id=":197#1_0_1" index="1" disallow="pedestrian tram rail_urban rail rail_electric rail_fast ship" speed="17.78" length="3.63" width="3.47" shape="133.57,611.86 133.14,610.97 132.56,610.47 132.02,609.97 131.70,609.06"/>
  </edge>
  <edge id=":20.137_0" function="internal">
    <lane id=":20.137_0_0" index="0" disallow="all" speed="17.78" length="3.00" width="3.50" shape="4505.43,5711.56,0.00 4502.87,5709.99,0.00"/>
    <lane id=":20.137_0_1" index="1" disallow="pedestrian tram rail_urban rail rail_electric rail_fast ship" speed="17.78" length="3.00" width="3.50" shape="4507.26,5708.57,0.00 4504.70,5707.00,0.00"/>
    <lane id=":20.137_0_2" index="2" disallow="pedestrian tram rail_urban rail rail_electric rail_fast ship" speed="17.78" length="3.00" width="3.50" shape="4509.09,5705.59,0.00 4506.53,5704.02,0.00"/>
    <lane id=":20.137_0_3" index="3" disallow="pedestrian tram rail_urban rail rail_electric rail_fast ship" speed="17.78" length="3.00" width="3.50" shape="4510.92,5702.60,0.00 4508.36,5701.04,0.00"/>
  </edge>
  <edge id=":20.157_0" function="internal">
    <lane id=":20.157_0_0" index="0" disallow="all" speed="17.78" length="3.00" width="3.50" shape="4520.81,5720.94,0.00 4518.24,5719.38,0.00"/>
    <lane id=":20.157_0_1" index="1" disallow="pedestrian tram rail_urban rail rail_electric rail_fast ship" speed="17.78" length="3.00" width="3.50" shape="4522.63,5717.95,0.00 4520.07,5716.39,0.00"/>
    <lane id=":20.157_0_2" index="2" disallow="pedestrian tram rail_urban rail rail_electric rail_fast ship" speed="17.78" length="3.00" width="3.50" shape="4524.45,5714.97,0.00 4521.89,5713.40,0.00"/>
    <lane id=":20.157_0_3" index="3" disallow="pedestrian tram rail_urban rail rail_electric rail_fast ship" speed="17.78" length="3.00" width="3.50" shape="4526.27,5711.98,0.00 4523.71,5710.42,0.00"/>
  </edge>
  <edge id=":200.126_0" function="internal">
    <lane id=":200.126_0_0" index="0" disallow="all" speed="17.78" length="3.00" width="3.50" shape="4615.87,5783.47 4618.41,5785.08"/>
    <lane id=":200.126_0_1" index="1" disallow="pedestrian tram rail_urban rail rail_electric rail_fast ship" speed="17.78" length="3.00" width="3.50" shape="4614.00,5786.43 4616.54,5788.03"/>
    <lane id=":200.126_0_2" index="2" disallow="pedestrian tram rail_urban rail rail_electric rail_fast ship" speed="17.78" length="3.00" width="3.50" shape="4612.13,5789.38 4614.66,5790.99"/>
    <lane id=":200.126_0_3" index="3" disallow="pedestrian tram rail_urban rail rail_electric rail_fast ship" speed="17.78" length="3.00" width="3.00" shape="4610.25,5792.34 4612.92,5793.73"/>
  </edge>
  <edge id=":201.178_0" function="internal">
    <lane id=":201.178_0_0" index="0" disallow="pedestrian tram rail_urban rail rail_electric rail_fast ship" speed="14.44" length="0.10" width="3.50" shape="238.58,1405.24,10.00 238.58,1405.24,10.00"/>
    <lane id=":201.178_0_1" index="1" disallow="pedestrian tram rail_urban rail rail_electric rail_fast ship" speed="14.44" length="0.10" width="3.50" shape="235.12,1405.81,10.00 235.12,1405.81,10.00"/>
    <lane id=":201.178_0_2" index="2" disallow="pedestrian tram rail_urban rail rail_electric rail_fast ship" speed="14.44" length="0.10" width="3.50" shape="231.67,1406.39,10.00 231.67,1406.39,10.00"/>
    <lane id=":201.178_0_3" index="3" disallow="pedestrian tram rail_urban rail rail_electric rail_fast ship" speed="14.44" length="0.10" width="3.50" shape="228.22,1406.96,10.00 228.22,1406.96,10.00"/>
    <lane id=":201.178_0_4" index="4" disallow="all" speed="14.44" length="0.10" width="0.50" shape="226.25,1407.29,10.00 226.25,1407.29,10.00"/>
  </edge>
  <edge id=":204_0" function="internal">
    <lane id=":204_0_0" index="0" disallow="pedestrian tram rail_urban rail rail_electric rail_fast ship" speed="12.78" length="7.46" width="3.50" shape="2144.26,4269.58,-0.00 2145.40,4271.01,-0.00 2146.59,4271.57,-0.00 2147.98,4271.94,-0.00 2149.75,4272.77">
      <param key="origId" value="207_-2"/>
    </lane>
    <lane id=":204_0_1" index="1" disallow="all" speed="10.18" length="7.46" width="3.50" shape="2141.78,4270.49,-0.00 2142.73,4272.63,-0.00 2143.98,4273.74,-0.00 2145.65,4274.54,-0.00 2147.88,4275.72">
      <param key="origId" value="207_-1"/>
    </lane>
  </edge>
  <edge id=":204_2" function="internal">
    <lane id=":204_2_0" index="0" disallow="pedestrian tram rail_urban rail rail_electric rail_fast ship" speed="17.78" length="8.48" width="3.50" shape="2148.29,4259.37,0.00 2155.39,4263.90">
      <param key="origId" value="205_-3"/>
    </lane>
    <lane id=":204_2_1" index="1" disallow="pedestrian tram rail_urban rail rail_electric rail_fast ship" speed="17.78" length="8.48" width="3.50" shape="2146.36,4262.29,0.00 2153.51,4266.86">
      <param key="origId" value="205_-2"/>
    </lane>
    <lane id=":204_2_2" index="2" disallow="pedestrian tram rail_urban rail rail_electric rail_fast ship" speed="17.78" length="8.48" width="3.50" shape="2144.44,4265.22,0.00 2151.63,4269.81">
      <param key="origId" value="205_-1"/>
    </lane>
  </edge>
  <edge id=":209_0" function="internal">
    <lane id=":209_0_0" index="0" disallow="pedestrian tram rail_urban rail rail_electric rail_fast ship" speed="17.78" length="79.80" width="3.50" shape="4457.60,5678.19,0.00 4388.97,5637.57">
      <param key="origId" value="210_-3"/>
    </lane>
    <lane id=":209_0_1" index="1" disallow="pedestrian tram rail_urban rail rail_electric rail_fast ship" speed="17.78" length="79.80" width="3.50" shape="4459.43,5675.20,0.00 4390.76,5634.56">
      <param key="origId" value="210_-2"/>
    </lane>
    <lane id=":209_0_2" index="2" disallow="pedestrian tram rail_urban rail rail_electric rail_fast ship" speed="17.78" length="79.80" width="3.50" shape="4461.26,5672.22,0.00 4392.54,5631.55">
      <param key="origId" value="210_-1"/>
    </lane>
  </edge>
  <edge id=":209_3" function="internal">
    <lane id=":209_3_0" index="0" disallow="pedestrian tram rail_urban rail rail_electric rail_fast ship" speed="17.78" length="88.38" width="3.50" shape="4470.72,5672.96 4392.54,5631.55">
      <param key="origId" value="227_-1"/>
    </lane>
    <lane id=":209_3_1" index="1" disallow="pedestrian tram rail_urban rail rail_electric rail_fast ship" speed="17.78" length="88.38" width="3.50" shape="4472.35,5669.86 4394.33,5628.54">
      <param key="origId" value="222_-1"/>
    </lane>
  </edge>
  <edge id=":22.195_0" function="internal">
    <lane id=":22.195_0_0" index="0" allow="pedestrian" speed="11.11" length="3.00" width="2.00" shape="3648.94,5189.85,10.04 3646.88,5192.04,10.04"/>
    <lane id=":22.195_0_1" index="1" speed="11.11" length="3.00" width="0.63" shape="3647.98,5188.95,10.04 3645.92,5191.14,10.04"/>
    <lane id=":22.195_0_2" index="2" disallow="pedestrian tram rail_urban rail rail_electric rail_fast ship" speed="11.11" length="3.00" width="3.50" shape="3646.47,5187.53,10.04 3644.42,5189.72,10.04"/>
  </edge>
  <edge id=":22.195_3" function="internal">
    <lane id=":22.195_3_0" index="0" allow="pedestrian" speed="11.11" length="3.00" width="2.00" shape="3639.40,5185.00,10.04 3641.46,5182.81,10.04"/>
    <lane id=":22.195_3_1" index="1" speed="11.11" length="3.00" width="0.63" shape="3640.36,5185.90,10.04 3642.42,5183.72,10.04"/>
    <lane id=":22.195_3_2" index="2" disallow="pedestrian tram rail_urban rail rail_electric rail_fast ship" speed="11.11" length="3.00" width="3.50" shape="3641.87,5187.32,10.04 3643.93,5185.13,10.04"/>
  </edge>
  <edge id=":233_0" function="internal">
    <lane id=":233_0_0" index="0" disallow="pedestrian tram rail_urban rail rail_electric rail_fast ship" speed="11.11" length="14.24" width="3.50" shape="1049.06,2874.68,-0.00 1056.97,2886.26">
      <param key="origId" value="237_-1"/>
    </lane>
    <lane id=":233_0_1" index="1" disallow="pedestrian tram rail_urban rail rail_electric rail_fast ship" speed="11.11" length="14.24" width="3.50" shape="1046.15,2876.63,-0.00 1054.10,2888.25">
      <param key="origId" value="235_-1"/>
    </lane>
    <lane id=":233_0_2" index="2" disallow="pedestrian tram rail_urban rail rail_electric rail_fast ship" speed="11.11" length="14.24" width="3.50" shape="1043.24,2878.57,-0.00 1051.22,2890.24">
      <param key="origId" value="238_-1"/>
    </lane>